[root]
type=Root
children=system
eventq_index=0
full_system=true
sim_quantum=1000000000
time_sync_enable=false
time_sync_period=100000000000
time_sync_spin_threshold=100000000

[system]
type=System
children=apicbridge bridge clk_domain cpu00 cpu01 cpu02 cpu03 cpu04 cpu05 cpu06 cpu07 cpu08 cpu09 cpu10 cpu11 cpu12 cpu13 cpu14 cpu15 cpu_clk_domain cpu_voltage_domain dvfs_handler iobridge iobus kvm_vm mem_ctrls0 mem_ctrls1 membus pc voltage_domain workload
byte_order=little
cache_line_size=64
checkpoint_m5sum_kvm_hack=false
eventq_index=0
exit_on_work_items=false
htm=Null
init_param=0
kvm_vm=system.kvm_vm
lockstep_fifopath=/tmp/gem5-lockstep_mode
lockstep_mode=disabled
m5ops_base=4294901760
mem_mode=atomic_noncaching
mem_ranges=0:3221225472 4294967296:9663676416
memories=system.mem_ctrls0.dram system.mem_ctrls1.dram
mmap_using_noreserve=false
multi_thread=false
num_work_ids=16
readfile=/home/vnicolas/Workspace/repos/ruben/gem5/gem5_path/scripts/hack_back_ckpt_caps.rcS
redirect_paths=
shadow_rom_ranges=
shared_backstore=
symbolfile=
thermal_components=
thermal_model=Null
work_begin_ckpt_count=0
work_begin_cpu_id_exit=-1
work_begin_exit_count=0
work_cpus_ckpt_count=0
work_end_ckpt_count=0
work_end_exit_count=0
work_item_id=-1
work_item_show_progress=true
workload=system.workload
system_port=system.membus.cpu_side_ports[1]

[system.apicbridge]
type=Bridge
children=power_state
clk_domain=system.clk_domain
delay=50000
eventq_index=0
power_model=
power_state=system.apicbridge.power_state
ranges=11529215046068469760:11529215046068535295
req_size=16
resp_size=16
cpu_side_port=system.iobus.mem_side_ports[0]
mem_side_port=system.membus.cpu_side_ports[0]

[system.apicbridge.power_state]
type=PowerState
clk_gate_bins=20
clk_gate_max=1000000000000
clk_gate_min=1000
default_state=UNDEFINED
eventq_index=0
leaders=
possible_states=

[system.bridge]
type=Bridge
children=power_state
clk_domain=system.clk_domain
delay=50000
eventq_index=0
power_model=
power_state=system.bridge.power_state
ranges=3221225472:4294901760 9223372036854775808:11529215046068469759 13835058055282163712:18446744073709551615
req_size=16
resp_size=16
cpu_side_port=system.membus.mem_side_ports[0]
mem_side_port=system.iobus.cpu_side_ports[0]

[system.bridge.power_state]
type=PowerState
clk_gate_bins=20
clk_gate_max=1000000000000
clk_gate_min=1000
default_state=UNDEFINED
eventq_index=0
leaders=
possible_states=

[system.clk_domain]
type=SrcClockDomain
clock=1000
domain_id=-1
eventq_index=0
init_perf_level=0
voltage_domain=system.voltage_domain

[system.cpu00]
type=X86KvmCPU
children=interrupts isa mmu power_state tracer
alwaysSyncTC=false
checker=Null
clk_domain=system.cpu_clk_domain
cpu_id=0
do_checkpoint_insts=true
do_statistics_insts=true
eventq_index=1
function_trace=false
function_trace_start=0
hostFactor=1.0
hostFreq=500
interrupts=system.cpu00.interrupts
isa=system.cpu00.isa
max_insts_all_threads=0
max_insts_any_thread=0
mmu=system.cpu00.mmu
numThreads=1
power_gating_on_idle=false
power_model=
power_state=system.cpu00.power_state
progress_interval=0
pwr_gating_latency=300
simpoint_start_insts=
socket_id=0
switched_out=false
syscallRetryLatency=10000
system=system
tracer=system.cpu00.tracer
useCoalescedMMIO=false
usePerfOverflow=false
useXSave=true
workload=
dcache_port=system.membus.cpu_side_ports[4]
icache_port=system.membus.cpu_side_ports[3]

[system.cpu00.interrupts]
type=X86LocalApic
children=clk_domain
clk_domain=system.cpu00.interrupts.clk_domain
eventq_index=0
int_latency=1000
pio_latency=100000
system=system
int_requestor=system.membus.cpu_side_ports[7]
int_responder=system.membus.mem_side_ports[2]
pio=system.membus.mem_side_ports[1]

[system.cpu00.interrupts.clk_domain]
type=DerivedClockDomain
clk_divider=16
clk_domain=system.cpu_clk_domain
eventq_index=0

[system.cpu00.isa]
type=X86ISA
eventq_index=0
vendor_string=M5 Simulator

[system.cpu00.mmu]
type=X86MMU
children=dtb itb
dtb=system.cpu00.mmu.dtb
eventq_index=0
itb=system.cpu00.mmu.itb

[system.cpu00.mmu.dtb]
type=X86TLB
children=walker
eventq_index=0
size=64
system=system
walker=system.cpu00.mmu.dtb.walker

[system.cpu00.mmu.dtb.walker]
type=X86PagetableWalker
children=power_state
clk_domain=system.cpu_clk_domain
eventq_index=0
num_squash_per_cycle=4
power_model=
power_state=system.cpu00.mmu.dtb.walker.power_state
system=system
port=system.membus.cpu_side_ports[6]

[system.cpu00.mmu.dtb.walker.power_state]
type=PowerState
clk_gate_bins=20
clk_gate_max=1000000000000
clk_gate_min=1000
default_state=UNDEFINED
eventq_index=0
leaders=
possible_states=

[system.cpu00.mmu.itb]
type=X86TLB
children=walker
eventq_index=0
size=64
system=system
walker=system.cpu00.mmu.itb.walker

[system.cpu00.mmu.itb.walker]
type=X86PagetableWalker
children=power_state
clk_domain=system.cpu_clk_domain
eventq_index=0
num_squash_per_cycle=4
power_model=
power_state=system.cpu00.mmu.itb.walker.power_state
system=system
port=system.membus.cpu_side_ports[5]

[system.cpu00.mmu.itb.walker.power_state]
type=PowerState
clk_gate_bins=20
clk_gate_max=1000000000000
clk_gate_min=1000
default_state=UNDEFINED
eventq_index=0
leaders=
possible_states=

[system.cpu00.power_state]
type=PowerState
clk_gate_bins=20
clk_gate_max=1000000000000
clk_gate_min=1000
default_state=UNDEFINED
eventq_index=0
leaders=
possible_states=ON CLK_GATED OFF

[system.cpu00.tracer]
type=ExeTracer
eventq_index=0

[system.cpu01]
type=X86KvmCPU
children=interrupts isa mmu power_state tracer
alwaysSyncTC=false
checker=Null
clk_domain=system.cpu_clk_domain
cpu_id=1
do_checkpoint_insts=true
do_statistics_insts=true
eventq_index=2
function_trace=false
function_trace_start=0
hostFactor=1.0
hostFreq=500
interrupts=system.cpu01.interrupts
isa=system.cpu01.isa
max_insts_all_threads=0
max_insts_any_thread=0
mmu=system.cpu01.mmu
numThreads=1
power_gating_on_idle=false
power_model=
power_state=system.cpu01.power_state
progress_interval=0
pwr_gating_latency=300
simpoint_start_insts=
socket_id=0
switched_out=false
syscallRetryLatency=10000
system=system
tracer=system.cpu01.tracer
useCoalescedMMIO=false
usePerfOverflow=false
useXSave=true
workload=
dcache_port=system.membus.cpu_side_ports[9]
icache_port=system.membus.cpu_side_ports[8]

[system.cpu01.interrupts]
type=X86LocalApic
children=clk_domain
clk_domain=system.cpu01.interrupts.clk_domain
eventq_index=0
int_latency=1000
pio_latency=100000
system=system
int_requestor=system.membus.cpu_side_ports[12]
int_responder=system.membus.mem_side_ports[4]
pio=system.membus.mem_side_ports[3]

[system.cpu01.interrupts.clk_domain]
type=DerivedClockDomain
clk_divider=16
clk_domain=system.cpu_clk_domain
eventq_index=0

[system.cpu01.isa]
type=X86ISA
eventq_index=0
vendor_string=M5 Simulator

[system.cpu01.mmu]
type=X86MMU
children=dtb itb
dtb=system.cpu01.mmu.dtb
eventq_index=0
itb=system.cpu01.mmu.itb

[system.cpu01.mmu.dtb]
type=X86TLB
children=walker
eventq_index=0
size=64
system=system
walker=system.cpu01.mmu.dtb.walker

[system.cpu01.mmu.dtb.walker]
type=X86PagetableWalker
children=power_state
clk_domain=system.cpu_clk_domain
eventq_index=0
num_squash_per_cycle=4
power_model=
power_state=system.cpu01.mmu.dtb.walker.power_state
system=system
port=system.membus.cpu_side_ports[11]

[system.cpu01.mmu.dtb.walker.power_state]
type=PowerState
clk_gate_bins=20
clk_gate_max=1000000000000
clk_gate_min=1000
default_state=UNDEFINED
eventq_index=0
leaders=
possible_states=

[system.cpu01.mmu.itb]
type=X86TLB
children=walker
eventq_index=0
size=64
system=system
walker=system.cpu01.mmu.itb.walker

[system.cpu01.mmu.itb.walker]
type=X86PagetableWalker
children=power_state
clk_domain=system.cpu_clk_domain
eventq_index=0
num_squash_per_cycle=4
power_model=
power_state=system.cpu01.mmu.itb.walker.power_state
system=system
port=system.membus.cpu_side_ports[10]

[system.cpu01.mmu.itb.walker.power_state]
type=PowerState
clk_gate_bins=20
clk_gate_max=1000000000000
clk_gate_min=1000
default_state=UNDEFINED
eventq_index=0
leaders=
possible_states=

[system.cpu01.power_state]
type=PowerState
clk_gate_bins=20
clk_gate_max=1000000000000
clk_gate_min=1000
default_state=UNDEFINED
eventq_index=0
leaders=
possible_states=ON CLK_GATED OFF

[system.cpu01.tracer]
type=ExeTracer
eventq_index=0

[system.cpu02]
type=X86KvmCPU
children=interrupts isa mmu power_state tracer
alwaysSyncTC=false
checker=Null
clk_domain=system.cpu_clk_domain
cpu_id=2
do_checkpoint_insts=true
do_statistics_insts=true
eventq_index=3
function_trace=false
function_trace_start=0
hostFactor=1.0
hostFreq=500
interrupts=system.cpu02.interrupts
isa=system.cpu02.isa
max_insts_all_threads=0
max_insts_any_thread=0
mmu=system.cpu02.mmu
numThreads=1
power_gating_on_idle=false
power_model=
power_state=system.cpu02.power_state
progress_interval=0
pwr_gating_latency=300
simpoint_start_insts=
socket_id=0
switched_out=false
syscallRetryLatency=10000
system=system
tracer=system.cpu02.tracer
useCoalescedMMIO=false
usePerfOverflow=false
useXSave=true
workload=
dcache_port=system.membus.cpu_side_ports[14]
icache_port=system.membus.cpu_side_ports[13]

[system.cpu02.interrupts]
type=X86LocalApic
children=clk_domain
clk_domain=system.cpu02.interrupts.clk_domain
eventq_index=0
int_latency=1000
pio_latency=100000
system=system
int_requestor=system.membus.cpu_side_ports[17]
int_responder=system.membus.mem_side_ports[6]
pio=system.membus.mem_side_ports[5]

[system.cpu02.interrupts.clk_domain]
type=DerivedClockDomain
clk_divider=16
clk_domain=system.cpu_clk_domain
eventq_index=0

[system.cpu02.isa]
type=X86ISA
eventq_index=0
vendor_string=M5 Simulator

[system.cpu02.mmu]
type=X86MMU
children=dtb itb
dtb=system.cpu02.mmu.dtb
eventq_index=0
itb=system.cpu02.mmu.itb

[system.cpu02.mmu.dtb]
type=X86TLB
children=walker
eventq_index=0
size=64
system=system
walker=system.cpu02.mmu.dtb.walker

[system.cpu02.mmu.dtb.walker]
type=X86PagetableWalker
children=power_state
clk_domain=system.cpu_clk_domain
eventq_index=0
num_squash_per_cycle=4
power_model=
power_state=system.cpu02.mmu.dtb.walker.power_state
system=system
port=system.membus.cpu_side_ports[16]

[system.cpu02.mmu.dtb.walker.power_state]
type=PowerState
clk_gate_bins=20
clk_gate_max=1000000000000
clk_gate_min=1000
default_state=UNDEFINED
eventq_index=0
leaders=
possible_states=

[system.cpu02.mmu.itb]
type=X86TLB
children=walker
eventq_index=0
size=64
system=system
walker=system.cpu02.mmu.itb.walker

[system.cpu02.mmu.itb.walker]
type=X86PagetableWalker
children=power_state
clk_domain=system.cpu_clk_domain
eventq_index=0
num_squash_per_cycle=4
power_model=
power_state=system.cpu02.mmu.itb.walker.power_state
system=system
port=system.membus.cpu_side_ports[15]

[system.cpu02.mmu.itb.walker.power_state]
type=PowerState
clk_gate_bins=20
clk_gate_max=1000000000000
clk_gate_min=1000
default_state=UNDEFINED
eventq_index=0
leaders=
possible_states=

[system.cpu02.power_state]
type=PowerState
clk_gate_bins=20
clk_gate_max=1000000000000
clk_gate_min=1000
default_state=UNDEFINED
eventq_index=0
leaders=
possible_states=ON CLK_GATED OFF

[system.cpu02.tracer]
type=ExeTracer
eventq_index=0

[system.cpu03]
type=X86KvmCPU
children=interrupts isa mmu power_state tracer
alwaysSyncTC=false
checker=Null
clk_domain=system.cpu_clk_domain
cpu_id=3
do_checkpoint_insts=true
do_statistics_insts=true
eventq_index=4
function_trace=false
function_trace_start=0
hostFactor=1.0
hostFreq=500
interrupts=system.cpu03.interrupts
isa=system.cpu03.isa
max_insts_all_threads=0
max_insts_any_thread=0
mmu=system.cpu03.mmu
numThreads=1
power_gating_on_idle=false
power_model=
power_state=system.cpu03.power_state
progress_interval=0
pwr_gating_latency=300
simpoint_start_insts=
socket_id=0
switched_out=false
syscallRetryLatency=10000
system=system
tracer=system.cpu03.tracer
useCoalescedMMIO=false
usePerfOverflow=false
useXSave=true
workload=
dcache_port=system.membus.cpu_side_ports[19]
icache_port=system.membus.cpu_side_ports[18]

[system.cpu03.interrupts]
type=X86LocalApic
children=clk_domain
clk_domain=system.cpu03.interrupts.clk_domain
eventq_index=0
int_latency=1000
pio_latency=100000
system=system
int_requestor=system.membus.cpu_side_ports[22]
int_responder=system.membus.mem_side_ports[8]
pio=system.membus.mem_side_ports[7]

[system.cpu03.interrupts.clk_domain]
type=DerivedClockDomain
clk_divider=16
clk_domain=system.cpu_clk_domain
eventq_index=0

[system.cpu03.isa]
type=X86ISA
eventq_index=0
vendor_string=M5 Simulator

[system.cpu03.mmu]
type=X86MMU
children=dtb itb
dtb=system.cpu03.mmu.dtb
eventq_index=0
itb=system.cpu03.mmu.itb

[system.cpu03.mmu.dtb]
type=X86TLB
children=walker
eventq_index=0
size=64
system=system
walker=system.cpu03.mmu.dtb.walker

[system.cpu03.mmu.dtb.walker]
type=X86PagetableWalker
children=power_state
clk_domain=system.cpu_clk_domain
eventq_index=0
num_squash_per_cycle=4
power_model=
power_state=system.cpu03.mmu.dtb.walker.power_state
system=system
port=system.membus.cpu_side_ports[21]

[system.cpu03.mmu.dtb.walker.power_state]
type=PowerState
clk_gate_bins=20
clk_gate_max=1000000000000
clk_gate_min=1000
default_state=UNDEFINED
eventq_index=0
leaders=
possible_states=

[system.cpu03.mmu.itb]
type=X86TLB
children=walker
eventq_index=0
size=64
system=system
walker=system.cpu03.mmu.itb.walker

[system.cpu03.mmu.itb.walker]
type=X86PagetableWalker
children=power_state
clk_domain=system.cpu_clk_domain
eventq_index=0
num_squash_per_cycle=4
power_model=
power_state=system.cpu03.mmu.itb.walker.power_state
system=system
port=system.membus.cpu_side_ports[20]

[system.cpu03.mmu.itb.walker.power_state]
type=PowerState
clk_gate_bins=20
clk_gate_max=1000000000000
clk_gate_min=1000
default_state=UNDEFINED
eventq_index=0
leaders=
possible_states=

[system.cpu03.power_state]
type=PowerState
clk_gate_bins=20
clk_gate_max=1000000000000
clk_gate_min=1000
default_state=UNDEFINED
eventq_index=0
leaders=
possible_states=ON CLK_GATED OFF

[system.cpu03.tracer]
type=ExeTracer
eventq_index=0

[system.cpu04]
type=X86KvmCPU
children=interrupts isa mmu power_state tracer
alwaysSyncTC=false
checker=Null
clk_domain=system.cpu_clk_domain
cpu_id=4
do_checkpoint_insts=true
do_statistics_insts=true
eventq_index=5
function_trace=false
function_trace_start=0
hostFactor=1.0
hostFreq=500
interrupts=system.cpu04.interrupts
isa=system.cpu04.isa
max_insts_all_threads=0
max_insts_any_thread=0
mmu=system.cpu04.mmu
numThreads=1
power_gating_on_idle=false
power_model=
power_state=system.cpu04.power_state
progress_interval=0
pwr_gating_latency=300
simpoint_start_insts=
socket_id=0
switched_out=false
syscallRetryLatency=10000
system=system
tracer=system.cpu04.tracer
useCoalescedMMIO=false
usePerfOverflow=false
useXSave=true
workload=
dcache_port=system.membus.cpu_side_ports[24]
icache_port=system.membus.cpu_side_ports[23]

[system.cpu04.interrupts]
type=X86LocalApic
children=clk_domain
clk_domain=system.cpu04.interrupts.clk_domain
eventq_index=0
int_latency=1000
pio_latency=100000
system=system
int_requestor=system.membus.cpu_side_ports[27]
int_responder=system.membus.mem_side_ports[10]
pio=system.membus.mem_side_ports[9]

[system.cpu04.interrupts.clk_domain]
type=DerivedClockDomain
clk_divider=16
clk_domain=system.cpu_clk_domain
eventq_index=0

[system.cpu04.isa]
type=X86ISA
eventq_index=0
vendor_string=M5 Simulator

[system.cpu04.mmu]
type=X86MMU
children=dtb itb
dtb=system.cpu04.mmu.dtb
eventq_index=0
itb=system.cpu04.mmu.itb

[system.cpu04.mmu.dtb]
type=X86TLB
children=walker
eventq_index=0
size=64
system=system
walker=system.cpu04.mmu.dtb.walker

[system.cpu04.mmu.dtb.walker]
type=X86PagetableWalker
children=power_state
clk_domain=system.cpu_clk_domain
eventq_index=0
num_squash_per_cycle=4
power_model=
power_state=system.cpu04.mmu.dtb.walker.power_state
system=system
port=system.membus.cpu_side_ports[26]

[system.cpu04.mmu.dtb.walker.power_state]
type=PowerState
clk_gate_bins=20
clk_gate_max=1000000000000
clk_gate_min=1000
default_state=UNDEFINED
eventq_index=0
leaders=
possible_states=

[system.cpu04.mmu.itb]
type=X86TLB
children=walker
eventq_index=0
size=64
system=system
walker=system.cpu04.mmu.itb.walker

[system.cpu04.mmu.itb.walker]
type=X86PagetableWalker
children=power_state
clk_domain=system.cpu_clk_domain
eventq_index=0
num_squash_per_cycle=4
power_model=
power_state=system.cpu04.mmu.itb.walker.power_state
system=system
port=system.membus.cpu_side_ports[25]

[system.cpu04.mmu.itb.walker.power_state]
type=PowerState
clk_gate_bins=20
clk_gate_max=1000000000000
clk_gate_min=1000
default_state=UNDEFINED
eventq_index=0
leaders=
possible_states=

[system.cpu04.power_state]
type=PowerState
clk_gate_bins=20
clk_gate_max=1000000000000
clk_gate_min=1000
default_state=UNDEFINED
eventq_index=0
leaders=
possible_states=ON CLK_GATED OFF

[system.cpu04.tracer]
type=ExeTracer
eventq_index=0

[system.cpu05]
type=X86KvmCPU
children=interrupts isa mmu power_state tracer
alwaysSyncTC=false
checker=Null
clk_domain=system.cpu_clk_domain
cpu_id=5
do_checkpoint_insts=true
do_statistics_insts=true
eventq_index=6
function_trace=false
function_trace_start=0
hostFactor=1.0
hostFreq=500
interrupts=system.cpu05.interrupts
isa=system.cpu05.isa
max_insts_all_threads=0
max_insts_any_thread=0
mmu=system.cpu05.mmu
numThreads=1
power_gating_on_idle=false
power_model=
power_state=system.cpu05.power_state
progress_interval=0
pwr_gating_latency=300
simpoint_start_insts=
socket_id=0
switched_out=false
syscallRetryLatency=10000
system=system
tracer=system.cpu05.tracer
useCoalescedMMIO=false
usePerfOverflow=false
useXSave=true
workload=
dcache_port=system.membus.cpu_side_ports[29]
icache_port=system.membus.cpu_side_ports[28]

[system.cpu05.interrupts]
type=X86LocalApic
children=clk_domain
clk_domain=system.cpu05.interrupts.clk_domain
eventq_index=0
int_latency=1000
pio_latency=100000
system=system
int_requestor=system.membus.cpu_side_ports[32]
int_responder=system.membus.mem_side_ports[12]
pio=system.membus.mem_side_ports[11]

[system.cpu05.interrupts.clk_domain]
type=DerivedClockDomain
clk_divider=16
clk_domain=system.cpu_clk_domain
eventq_index=0

[system.cpu05.isa]
type=X86ISA
eventq_index=0
vendor_string=M5 Simulator

[system.cpu05.mmu]
type=X86MMU
children=dtb itb
dtb=system.cpu05.mmu.dtb
eventq_index=0
itb=system.cpu05.mmu.itb

[system.cpu05.mmu.dtb]
type=X86TLB
children=walker
eventq_index=0
size=64
system=system
walker=system.cpu05.mmu.dtb.walker

[system.cpu05.mmu.dtb.walker]
type=X86PagetableWalker
children=power_state
clk_domain=system.cpu_clk_domain
eventq_index=0
num_squash_per_cycle=4
power_model=
power_state=system.cpu05.mmu.dtb.walker.power_state
system=system
port=system.membus.cpu_side_ports[31]

[system.cpu05.mmu.dtb.walker.power_state]
type=PowerState
clk_gate_bins=20
clk_gate_max=1000000000000
clk_gate_min=1000
default_state=UNDEFINED
eventq_index=0
leaders=
possible_states=

[system.cpu05.mmu.itb]
type=X86TLB
children=walker
eventq_index=0
size=64
system=system
walker=system.cpu05.mmu.itb.walker

[system.cpu05.mmu.itb.walker]
type=X86PagetableWalker
children=power_state
clk_domain=system.cpu_clk_domain
eventq_index=0
num_squash_per_cycle=4
power_model=
power_state=system.cpu05.mmu.itb.walker.power_state
system=system
port=system.membus.cpu_side_ports[30]

[system.cpu05.mmu.itb.walker.power_state]
type=PowerState
clk_gate_bins=20
clk_gate_max=1000000000000
clk_gate_min=1000
default_state=UNDEFINED
eventq_index=0
leaders=
possible_states=

[system.cpu05.power_state]
type=PowerState
clk_gate_bins=20
clk_gate_max=1000000000000
clk_gate_min=1000
default_state=UNDEFINED
eventq_index=0
leaders=
possible_states=ON CLK_GATED OFF

[system.cpu05.tracer]
type=ExeTracer
eventq_index=0

[system.cpu06]
type=X86KvmCPU
children=interrupts isa mmu power_state tracer
alwaysSyncTC=false
checker=Null
clk_domain=system.cpu_clk_domain
cpu_id=6
do_checkpoint_insts=true
do_statistics_insts=true
eventq_index=7
function_trace=false
function_trace_start=0
hostFactor=1.0
hostFreq=500
interrupts=system.cpu06.interrupts
isa=system.cpu06.isa
max_insts_all_threads=0
max_insts_any_thread=0
mmu=system.cpu06.mmu
numThreads=1
power_gating_on_idle=false
power_model=
power_state=system.cpu06.power_state
progress_interval=0
pwr_gating_latency=300
simpoint_start_insts=
socket_id=0
switched_out=false
syscallRetryLatency=10000
system=system
tracer=system.cpu06.tracer
useCoalescedMMIO=false
usePerfOverflow=false
useXSave=true
workload=
dcache_port=system.membus.cpu_side_ports[34]
icache_port=system.membus.cpu_side_ports[33]

[system.cpu06.interrupts]
type=X86LocalApic
children=clk_domain
clk_domain=system.cpu06.interrupts.clk_domain
eventq_index=0
int_latency=1000
pio_latency=100000
system=system
int_requestor=system.membus.cpu_side_ports[37]
int_responder=system.membus.mem_side_ports[14]
pio=system.membus.mem_side_ports[13]

[system.cpu06.interrupts.clk_domain]
type=DerivedClockDomain
clk_divider=16
clk_domain=system.cpu_clk_domain
eventq_index=0

[system.cpu06.isa]
type=X86ISA
eventq_index=0
vendor_string=M5 Simulator

[system.cpu06.mmu]
type=X86MMU
children=dtb itb
dtb=system.cpu06.mmu.dtb
eventq_index=0
itb=system.cpu06.mmu.itb

[system.cpu06.mmu.dtb]
type=X86TLB
children=walker
eventq_index=0
size=64
system=system
walker=system.cpu06.mmu.dtb.walker

[system.cpu06.mmu.dtb.walker]
type=X86PagetableWalker
children=power_state
clk_domain=system.cpu_clk_domain
eventq_index=0
num_squash_per_cycle=4
power_model=
power_state=system.cpu06.mmu.dtb.walker.power_state
system=system
port=system.membus.cpu_side_ports[36]

[system.cpu06.mmu.dtb.walker.power_state]
type=PowerState
clk_gate_bins=20
clk_gate_max=1000000000000
clk_gate_min=1000
default_state=UNDEFINED
eventq_index=0
leaders=
possible_states=

[system.cpu06.mmu.itb]
type=X86TLB
children=walker
eventq_index=0
size=64
system=system
walker=system.cpu06.mmu.itb.walker

[system.cpu06.mmu.itb.walker]
type=X86PagetableWalker
children=power_state
clk_domain=system.cpu_clk_domain
eventq_index=0
num_squash_per_cycle=4
power_model=
power_state=system.cpu06.mmu.itb.walker.power_state
system=system
port=system.membus.cpu_side_ports[35]

[system.cpu06.mmu.itb.walker.power_state]
type=PowerState
clk_gate_bins=20
clk_gate_max=1000000000000
clk_gate_min=1000
default_state=UNDEFINED
eventq_index=0
leaders=
possible_states=

[system.cpu06.power_state]
type=PowerState
clk_gate_bins=20
clk_gate_max=1000000000000
clk_gate_min=1000
default_state=UNDEFINED
eventq_index=0
leaders=
possible_states=ON CLK_GATED OFF

[system.cpu06.tracer]
type=ExeTracer
eventq_index=0

[system.cpu07]
type=X86KvmCPU
children=interrupts isa mmu power_state tracer
alwaysSyncTC=false
checker=Null
clk_domain=system.cpu_clk_domain
cpu_id=7
do_checkpoint_insts=true
do_statistics_insts=true
eventq_index=8
function_trace=false
function_trace_start=0
hostFactor=1.0
hostFreq=500
interrupts=system.cpu07.interrupts
isa=system.cpu07.isa
max_insts_all_threads=0
max_insts_any_thread=0
mmu=system.cpu07.mmu
numThreads=1
power_gating_on_idle=false
power_model=
power_state=system.cpu07.power_state
progress_interval=0
pwr_gating_latency=300
simpoint_start_insts=
socket_id=0
switched_out=false
syscallRetryLatency=10000
system=system
tracer=system.cpu07.tracer
useCoalescedMMIO=false
usePerfOverflow=false
useXSave=true
workload=
dcache_port=system.membus.cpu_side_ports[39]
icache_port=system.membus.cpu_side_ports[38]

[system.cpu07.interrupts]
type=X86LocalApic
children=clk_domain
clk_domain=system.cpu07.interrupts.clk_domain
eventq_index=0
int_latency=1000
pio_latency=100000
system=system
int_requestor=system.membus.cpu_side_ports[42]
int_responder=system.membus.mem_side_ports[16]
pio=system.membus.mem_side_ports[15]

[system.cpu07.interrupts.clk_domain]
type=DerivedClockDomain
clk_divider=16
clk_domain=system.cpu_clk_domain
eventq_index=0

[system.cpu07.isa]
type=X86ISA
eventq_index=0
vendor_string=M5 Simulator

[system.cpu07.mmu]
type=X86MMU
children=dtb itb
dtb=system.cpu07.mmu.dtb
eventq_index=0
itb=system.cpu07.mmu.itb

[system.cpu07.mmu.dtb]
type=X86TLB
children=walker
eventq_index=0
size=64
system=system
walker=system.cpu07.mmu.dtb.walker

[system.cpu07.mmu.dtb.walker]
type=X86PagetableWalker
children=power_state
clk_domain=system.cpu_clk_domain
eventq_index=0
num_squash_per_cycle=4
power_model=
power_state=system.cpu07.mmu.dtb.walker.power_state
system=system
port=system.membus.cpu_side_ports[41]

[system.cpu07.mmu.dtb.walker.power_state]
type=PowerState
clk_gate_bins=20
clk_gate_max=1000000000000
clk_gate_min=1000
default_state=UNDEFINED
eventq_index=0
leaders=
possible_states=

[system.cpu07.mmu.itb]
type=X86TLB
children=walker
eventq_index=0
size=64
system=system
walker=system.cpu07.mmu.itb.walker

[system.cpu07.mmu.itb.walker]
type=X86PagetableWalker
children=power_state
clk_domain=system.cpu_clk_domain
eventq_index=0
num_squash_per_cycle=4
power_model=
power_state=system.cpu07.mmu.itb.walker.power_state
system=system
port=system.membus.cpu_side_ports[40]

[system.cpu07.mmu.itb.walker.power_state]
type=PowerState
clk_gate_bins=20
clk_gate_max=1000000000000
clk_gate_min=1000
default_state=UNDEFINED
eventq_index=0
leaders=
possible_states=

[system.cpu07.power_state]
type=PowerState
clk_gate_bins=20
clk_gate_max=1000000000000
clk_gate_min=1000
default_state=UNDEFINED
eventq_index=0
leaders=
possible_states=ON CLK_GATED OFF

[system.cpu07.tracer]
type=ExeTracer
eventq_index=0

[system.cpu08]
type=X86KvmCPU
children=interrupts isa mmu power_state tracer
alwaysSyncTC=false
checker=Null
clk_domain=system.cpu_clk_domain
cpu_id=8
do_checkpoint_insts=true
do_statistics_insts=true
eventq_index=9
function_trace=false
function_trace_start=0
hostFactor=1.0
hostFreq=500
interrupts=system.cpu08.interrupts
isa=system.cpu08.isa
max_insts_all_threads=0
max_insts_any_thread=0
mmu=system.cpu08.mmu
numThreads=1
power_gating_on_idle=false
power_model=
power_state=system.cpu08.power_state
progress_interval=0
pwr_gating_latency=300
simpoint_start_insts=
socket_id=0
switched_out=false
syscallRetryLatency=10000
system=system
tracer=system.cpu08.tracer
useCoalescedMMIO=false
usePerfOverflow=false
useXSave=true
workload=
dcache_port=system.membus.cpu_side_ports[44]
icache_port=system.membus.cpu_side_ports[43]

[system.cpu08.interrupts]
type=X86LocalApic
children=clk_domain
clk_domain=system.cpu08.interrupts.clk_domain
eventq_index=0
int_latency=1000
pio_latency=100000
system=system
int_requestor=system.membus.cpu_side_ports[47]
int_responder=system.membus.mem_side_ports[18]
pio=system.membus.mem_side_ports[17]

[system.cpu08.interrupts.clk_domain]
type=DerivedClockDomain
clk_divider=16
clk_domain=system.cpu_clk_domain
eventq_index=0

[system.cpu08.isa]
type=X86ISA
eventq_index=0
vendor_string=M5 Simulator

[system.cpu08.mmu]
type=X86MMU
children=dtb itb
dtb=system.cpu08.mmu.dtb
eventq_index=0
itb=system.cpu08.mmu.itb

[system.cpu08.mmu.dtb]
type=X86TLB
children=walker
eventq_index=0
size=64
system=system
walker=system.cpu08.mmu.dtb.walker

[system.cpu08.mmu.dtb.walker]
type=X86PagetableWalker
children=power_state
clk_domain=system.cpu_clk_domain
eventq_index=0
num_squash_per_cycle=4
power_model=
power_state=system.cpu08.mmu.dtb.walker.power_state
system=system
port=system.membus.cpu_side_ports[46]

[system.cpu08.mmu.dtb.walker.power_state]
type=PowerState
clk_gate_bins=20
clk_gate_max=1000000000000
clk_gate_min=1000
default_state=UNDEFINED
eventq_index=0
leaders=
possible_states=

[system.cpu08.mmu.itb]
type=X86TLB
children=walker
eventq_index=0
size=64
system=system
walker=system.cpu08.mmu.itb.walker

[system.cpu08.mmu.itb.walker]
type=X86PagetableWalker
children=power_state
clk_domain=system.cpu_clk_domain
eventq_index=0
num_squash_per_cycle=4
power_model=
power_state=system.cpu08.mmu.itb.walker.power_state
system=system
port=system.membus.cpu_side_ports[45]

[system.cpu08.mmu.itb.walker.power_state]
type=PowerState
clk_gate_bins=20
clk_gate_max=1000000000000
clk_gate_min=1000
default_state=UNDEFINED
eventq_index=0
leaders=
possible_states=

[system.cpu08.power_state]
type=PowerState
clk_gate_bins=20
clk_gate_max=1000000000000
clk_gate_min=1000
default_state=UNDEFINED
eventq_index=0
leaders=
possible_states=ON CLK_GATED OFF

[system.cpu08.tracer]
type=ExeTracer
eventq_index=0

[system.cpu09]
type=X86KvmCPU
children=interrupts isa mmu power_state tracer
alwaysSyncTC=false
checker=Null
clk_domain=system.cpu_clk_domain
cpu_id=9
do_checkpoint_insts=true
do_statistics_insts=true
eventq_index=10
function_trace=false
function_trace_start=0
hostFactor=1.0
hostFreq=500
interrupts=system.cpu09.interrupts
isa=system.cpu09.isa
max_insts_all_threads=0
max_insts_any_thread=0
mmu=system.cpu09.mmu
numThreads=1
power_gating_on_idle=false
power_model=
power_state=system.cpu09.power_state
progress_interval=0
pwr_gating_latency=300
simpoint_start_insts=
socket_id=0
switched_out=false
syscallRetryLatency=10000
system=system
tracer=system.cpu09.tracer
useCoalescedMMIO=false
usePerfOverflow=false
useXSave=true
workload=
dcache_port=system.membus.cpu_side_ports[49]
icache_port=system.membus.cpu_side_ports[48]

[system.cpu09.interrupts]
type=X86LocalApic
children=clk_domain
clk_domain=system.cpu09.interrupts.clk_domain
eventq_index=0
int_latency=1000
pio_latency=100000
system=system
int_requestor=system.membus.cpu_side_ports[52]
int_responder=system.membus.mem_side_ports[20]
pio=system.membus.mem_side_ports[19]

[system.cpu09.interrupts.clk_domain]
type=DerivedClockDomain
clk_divider=16
clk_domain=system.cpu_clk_domain
eventq_index=0

[system.cpu09.isa]
type=X86ISA
eventq_index=0
vendor_string=M5 Simulator

[system.cpu09.mmu]
type=X86MMU
children=dtb itb
dtb=system.cpu09.mmu.dtb
eventq_index=0
itb=system.cpu09.mmu.itb

[system.cpu09.mmu.dtb]
type=X86TLB
children=walker
eventq_index=0
size=64
system=system
walker=system.cpu09.mmu.dtb.walker

[system.cpu09.mmu.dtb.walker]
type=X86PagetableWalker
children=power_state
clk_domain=system.cpu_clk_domain
eventq_index=0
num_squash_per_cycle=4
power_model=
power_state=system.cpu09.mmu.dtb.walker.power_state
system=system
port=system.membus.cpu_side_ports[51]

[system.cpu09.mmu.dtb.walker.power_state]
type=PowerState
clk_gate_bins=20
clk_gate_max=1000000000000
clk_gate_min=1000
default_state=UNDEFINED